data/Network1_Feeder1_Impedance_sections_Normal_mismatch/Loads.txt
! Imported from Loads.txt, with modified neutral terminal
! ---------------------------------------------------------------------------
New Load.LOAD1 Phases=3 Bus1=34.1.2.3.4 kV=0.4 kW=1.968  PF=0.95
New Load.LOAD2 Phases=3 Bus1=47.1.2.3.4 kV=0.4 kW=0.306  PF=0.95
New Load.LOAD3 Phases=3 Bus1=70.1.2.3.4 kV=0.4 kW=2.94  PF=0.95
New Load.LOAD4 Phases=3 Bus1=73.1.2.3.4 kV=0.4 kW=0.324  PF=0.95
New Load.LOAD5 Phases=3 Bus1=74.1.2.3.4 kV=0.4 kW=1.332  PF=0.95
New Load.LOAD6 Phases=3 Bus1=83.1.2.3.4 kV=0.4 kW=3.0540000000000003  PF=0.95
New Load.LOAD7 Phases=3 Bus1=178.1.2.3.4 kV=0.4 kW=2.0580000000000003  PF=0.95
New Load.LOAD8 Phases=3 Bus1=208.1.2.3.4 kV=0.4 kW=0.29400000000000004  PF=0.95
New Load.LOAD9 Phases=3 Bus1=225.1.2.3.4 kV=0.4 kW=0.312  PF=0.95
New Load.LOAD10 Phases=3 Bus1=248.1.2.3.4 kV=0.4 kW=0.27  PF=0.95
New Load.LOAD11 Phases=3 Bus1=249.1.2.3.4 kV=0.4 kW=0.33  PF=0.95
New Load.LOAD12 Phases=3 Bus1=264.1.2.3.4 kV=0.4 kW=0.33  PF=0.95
New Load.LOAD13 Phases=3 Bus1=276.1.2.3.4 kV=0.4 kW=0.246  PF=0.95
New Load.LOAD14 Phases=3 Bus1=289.1.2.3.4 kV=0.4 kW=2.04  PF=0.95
New Load.LOAD15 Phases=3 Bus1=314.1.2.3.4 kV=0.4 kW=0.8280000000000001  PF=0.95
New Load.LOAD16 Phases=3 Bus1=320.1.2.3.4 kV=0.4 kW=0.11399999999999999  PF=0.95
New Load.LOAD17 Phases=3 Bus1=327.1.2.3.4 kV=0.4 kW=0.28800000000000003  PF=0.95
New Load.LOAD18 Phases=3 Bus1=337.1.2.3.4 kV=0.4 kW=0.324  PF=0.95
New Load.LOAD19 Phases=3 Bus1=342.1.2.3.4 kV=0.4 kW=1.944  PF=0.95
New Load.LOAD20 Phases=3 Bus1=349.1.2.3.4 kV=0.4 kW=0.264  PF=0.95
New Load.LOAD21 Phases=3 Bus1=387.1.2.3.4 kV=0.4 kW=0.336  PF=0.95
New Load.LOAD22 Phases=3 Bus1=388.1.2.3.4 kV=0.4 kW=0.966  PF=0.95
New Load.LOAD23 Phases=3 Bus1=406.1.2.3.4 kV=0.4 kW=0.246  PF=0.95
New Load.LOAD24 Phases=3 Bus1=458.1.2.3.4 kV=0.4 kW=1.956  PF=0.95
New Load.LOAD25 Phases=3 Bus1=502.1.2.3.4 kV=0.4 kW=0.29400000000000004  PF=0.95
New Load.LOAD26 Phases=3 Bus1=522.1.2.3.4 kV=0.4 kW=0.336  PF=0.95
New Load.LOAD27 Phases=3 Bus1=539.1.2.3.4 kV=0.4 kW=0.27  PF=0.95
New Load.LOAD28 Phases=3 Bus1=556.1.2.3.4 kV=0.4 kW=0.276  PF=0.95
New Load.LOAD29 Phases=3 Bus1=562.1.2.3.4 kV=0.4 kW=0.34800000000000003  PF=0.95
New Load.LOAD30 Phases=3 Bus1=563.1.2.3.4 kV=0.4 kW=0.264  PF=0.95
New Load.LOAD31 Phases=3 Bus1=611.1.2.3.4 kV=0.4 kW=0.28200000000000003  PF=0.95
New Load.LOAD32 Phases=3 Bus1=614.1.2.3.4 kV=0.4 kW=0.342  PF=0.95
New Load.LOAD33 Phases=3 Bus1=619.1.2.3.4 kV=0.4 kW=0.28800000000000003  PF=0.95
New Load.LOAD34 Phases=3 Bus1=629.1.2.3.4 kV=0.4 kW=2.748  PF=0.95
New Load.LOAD35 Phases=3 Bus1=639.1.2.3.4 kV=0.4 kW=0.9612  PF=0.95
New Load.LOAD36 Phases=3 Bus1=676.1.2.3.4 kV=0.4 kW=0.318  PF=0.95
New Load.LOAD37 Phases=3 Bus1=682.1.2.3.4 kV=0.4 kW=0.28200000000000003  PF=0.95
New Load.LOAD38 Phases=3 Bus1=688.1.2.3.4 kV=0.4 kW=0.276  PF=0.95
New Load.LOAD39 Phases=3 Bus1=701.1.2.3.4 kV=0.4 kW=9.738  PF=0.95
New Load.LOAD40 Phases=3 Bus1=702.1.2.3.4 kV=0.4 kW=0.28800000000000003  PF=0.95
New Load.LOAD41 Phases=3 Bus1=755.1.2.3.4 kV=0.4 kW=0.28800000000000003  PF=0.95
New Load.LOAD42 Phases=3 Bus1=778.1.2.3.4 kV=0.4 kW=0.15000000000000002  PF=0.95
New Load.LOAD43 Phases=3 Bus1=780.1.2.3.4 kV=0.4 kW=0.318  PF=0.95
New Load.LOAD44 Phases=3 Bus1=785.1.2.3.4 kV=0.4 kW=1.8719999999999999  PF=0.95
New Load.LOAD45 Phases=3 Bus1=813.1.2.3.4 kV=0.4 kW=5.586  PF=0.95
New Load.LOAD46 Phases=3 Bus1=817.1.2.3.4 kV=0.4 kW=0.336  PF=0.95
New Load.LOAD47 Phases=3 Bus1=835.1.2.3.4 kV=0.4 kW=0.354  PF=0.95
New Load.LOAD48 Phases=3 Bus1=860.1.2.3.4 kV=0.4 kW=0.21599999999999997  PF=0.95
New Load.LOAD49 Phases=3 Bus1=861.1.2.3.4 kV=0.4 kW=0.324  PF=0.95
New Load.LOAD50 Phases=3 Bus1=886.1.2.3.4 kV=0.4 kW=0.318  PF=0.95
New Load.LOAD51 Phases=3 Bus1=896.1.2.3.4 kV=0.4 kW=0.33  PF=0.95
New Load.LOAD52 Phases=3 Bus1=898.1.2.3.4 kV=0.4 kW=0.22799999999999998  PF=0.95
New Load.LOAD53 Phases=3 Bus1=899.1.2.3.4 kV=0.4 kW=0.9179999999999999  PF=0.95
New Load.LOAD54 Phases=3 Bus1=900.1.2.3.4 kV=0.4 kW=0.28800000000000003  PF=0.95
New Load.LOAD55 Phases=3 Bus1=906.1.2.3.4 kV=0.4 kW=0.4356  PF=0.95
! ---------------------------------------------------------------------------